<?xml version="1.0" encoding="UTF-8"?>

<!-- generated on 2023-08-11 11:13:38 by Eclipse SUMO netedit Version 1.17.0
<configuration xmlns:xsi="http://www.w3.org/2001/XMLSchema-instance" xsi:noNamespaceSchemaLocation="http://sumo.dlr.de/xsd/netconvertConfiguration.xsd">

    <input>
        <sumo-net-file value="E:\webots_file\myOwn\worlds\myMap_net\sumo.net.xml"/>
    </input>

    <output>
        <output-file value="E:\webots_file\myOwn\worlds\myMap_net\sumo.net.xml"/>
    </output>

    <processing>
        <geometry.min-radius.fix.railways value="false"/>
        <geometry.max-grade.fix value="false"/>
        <offset.disable-normalization value="true"/>
        <lefthand value="0"/>
    </processing>

    <junctions>
        <no-turnarounds value="true"/>
        <junctions.corner-detail value="5"/>
        <junctions.limit-turn-speed value="5.50"/>
        <rectangular-lane-cut value="0"/>
    </junctions>

    <pedestrian>
        <walkingareas value="0"/>
    </pedestrian>

</configuration>
-->

<net version="1.16" junctionCornerDetail="5" limitTurnSpeed="5.50" xmlns:xsi="http://www.w3.org/2001/XMLSchema-instance" xsi:noNamespaceSchemaLocation="http://sumo.dlr.de/xsd/net_file.xsd">

    <location netOffset="833.68,1373.74" convBoundary="0.00,0.00,2140.60,2456.94" origBoundary="-833.68,-1373.74,1306.92,1083.20" projParameter="!"/>

    <edge id=":10792528043_0" function="internal">
        <lane id=":10792528043_0_0" index="0" speed="13.89" length="0.28" width="3.50" shape="853.87,1887.20 854.17,1887.30"/>
        <lane id=":10792528043_0_1" index="1" speed="13.89" length="0.28" width="3.50" shape="852.76,1890.52 853.00,1890.60"/>
    </edge>
    <edge id=":10792528046_0" function="internal">
        <lane id=":10792528046_0_0" index="0" speed="5.36" length="5.28" width="3.50" shape="998.01,1938.56 997.96,1939.59 998.46,1940.53 999.53,1941.39 1001.16,1942.17"/>
    </edge>
    <edge id=":10792528046_1" function="internal">
        <lane id=":10792528046_1_0" index="0" speed="13.89" length="7.99" width="4.00" shape="998.01,1938.56 995.42,1946.11"/>
    </edge>
    <edge id=":10792528046_2" function="internal">
        <lane id=":10792528046_2_0" index="0" speed="13.89" length="8.00" width="3.50" shape="993.68,1939.32 1001.16,1942.17"/>
        <lane id=":10792528046_2_1" index="1" speed="13.89" length="8.00" width="3.50" shape="992.45,1942.59 999.91,1945.44"/>
    </edge>
    <edge id=":10792528046_4" function="internal">
        <lane id=":10792528046_4_0" index="0" speed="5.14" length="5.13" width="4.00" shape="992.45,1942.59 994.04,1943.34 995.06,1944.18 995.52,1945.10 995.42,1946.11"/>
    </edge>
    <edge id=":10792528048_0" function="internal">
        <lane id=":10792528048_0_0" index="0" speed="13.89" length="0.28" width="3.50" shape="885.14,1898.33 885.44,1898.44"/>
        <lane id=":10792528048_0_1" index="1" speed="13.89" length="0.28" width="3.50" shape="883.97,1901.62 884.20,1901.71"/>
    </edge>
    <edge id=":10792528050_0" function="internal">
        <lane id=":10792528050_0_0" index="0" speed="4.54" length="4.38" width="3.50" shape="810.08,1873.76 811.07,1873.85 811.79,1873.42 812.24,1872.47 812.42,1870.99"/>
    </edge>
    <edge id=":10792528050_1" function="internal">
        <lane id=":10792528050_1_0" index="0" speed="13.89" length="10.99" width="3.50" shape="812.15,1881.98 812.42,1870.99"/>
        <lane id=":10792528050_1_1" index="1" speed="13.89" length="10.99" width="3.50" shape="815.65,1882.07 815.92,1871.08"/>
    </edge>
    <edge id=":1366247754_0" function="internal">
        <lane id=":1366247754_0_0" index="0" speed="5.56" length="6.34" width="4.00" shape="1097.22,1658.18 1096.87,1659.90 1097.17,1661.28 1098.12,1662.34 1099.73,1663.06"/>
    </edge>
    <edge id=":1366247754_1" function="internal">
        <lane id=":1366247754_1_0" index="0" speed="13.89" length="8.00" width="4.00" shape="1092.01,1660.95 1099.73,1663.06"/>
    </edge>
    <edge id=":3556573598_0" function="internal">
        <lane id=":3556573598_0_0" index="0" speed="13.89" length="8.00" width="4.00" shape="550.01,1784.87 557.50,1787.67"/>
    </edge>
    <edge id=":3556573598_1" function="internal">
        <lane id=":3556573598_1_0" index="0" speed="5.03" length="1.69" width="4.00" shape="553.66,1790.35 553.92,1788.68"/>
    </edge>
    <edge id=":3556573598_2" function="internal">
        <lane id=":3556573598_2_0" index="0" speed="5.03" length="4.17" width="4.00" shape="553.92,1788.68 554.65,1787.68 555.85,1787.34 557.50,1787.67"/>
    </edge>
    <edge id=":4199644799_0" function="internal">
        <lane id=":4199644799_0_0" index="0" speed="6.33" length="5.96" width="4.00" shape="394.38,1718.01 394.45,1720.13 394.75,1721.74 395.28,1722.85 396.03,1723.45"/>
    </edge>
    <edge id=":4199644799_1" function="internal">
        <lane id=":4199644799_1_0" index="0" speed="5.79" length="8.28" width="4.00" shape="394.38,1718.01 393.96,1719.90 392.77,1720.95 390.82,1721.14 388.10,1720.49"/>
    </edge>
    <edge id=":4199644799_2" function="internal">
        <lane id=":4199644799_2_0" index="0" speed="4.08" length="5.84" width="4.00" shape="394.38,1718.01 393.35,1719.49 392.34,1719.97 391.35,1719.45 390.38,1717.94"/>
    </edge>
    <edge id=":4208770881_0" function="internal">
        <lane id=":4208770881_0_0" index="0" speed="7.31" length="8.75" width="3.50" shape="411.01,860.70 411.28,862.57 412.29,864.21 414.02,865.60 416.48,866.75"/>
    </edge>
    <edge id=":4208770881_1" function="internal">
        <lane id=":4208770881_1_0" index="0" speed="4.08" length="5.84" width="4.00" shape="411.01,860.70 409.93,862.15 408.91,862.59 407.93,862.04 407.01,860.49"/>
    </edge>
    <edge id=":4208770881_2" function="internal">
        <lane id=":4208770881_2_0" index="0" speed="4.60" length="4.82" width="4.00" shape="403.35,861.92 404.91,862.32 406.04,862.22 406.74,861.61 407.01,860.49"/>
    </edge>
    <edge id=":4208770881_3" function="internal">
        <lane id=":4208770881_3_0" index="0" speed="13.89" length="14.00" width="3.50" shape="403.35,861.92 416.48,866.75"/>
        <lane id=":4208770881_3_1" index="1" speed="13.89" length="14.00" width="3.50" shape="402.14,865.21 415.28,870.04"/>
        <lane id=":4208770881_3_2" index="2" speed="13.89" length="14.00" width="3.50" shape="400.93,868.49 414.08,873.33"/>
    </edge>
    <edge id=":5081769697_0" function="internal">
        <lane id=":5081769697_0_0" index="0" speed="7.50" length="9.09" width="3.50" shape="845.77,1022.65 846.10,1024.51 847.19,1026.16 849.04,1027.60 851.64,1028.83"/>
        <lane id=":5081769697_0_1" index="1" speed="9.00" length="13.46" width="3.50" shape="842.27,1022.52 842.72,1025.55 844.23,1028.15 846.79,1030.34 850.41,1032.10"/>
        <lane id=":5081769697_0_2" index="2" speed="9.66" length="15.64" width="3.50" shape="842.27,1022.52 842.61,1027.14 843.88,1030.83 846.07,1033.57 849.18,1035.38"/>
    </edge>
    <edge id=":5081769698_0" function="internal">
        <lane id=":5081769698_0_0" index="0" speed="5.18" length="6.59" width="3.50" shape="849.31,1047.01 847.44,1046.60 846.10,1046.95 845.27,1048.07 844.97,1049.95"/>
        <lane id=":5081769698_0_1" index="1" speed="7.13" length="13.78" width="3.50" shape="850.53,1043.73 846.64,1042.88 843.83,1043.62 842.11,1045.95 841.47,1049.88"/>
    </edge>
    <edge id=":5081769700_0" function="internal">
        <lane id=":5081769700_0_0" index="0" speed="7.66" length="9.91" width="3.50" shape="826.45,1872.23 826.72,1874.84 827.68,1876.96 829.34,1878.60 831.70,1879.75"/>
        <lane id=":5081769700_0_1" index="1" speed="8.47" length="12.33" width="3.50" shape="826.45,1872.23 826.61,1876.42 827.36,1879.62 828.68,1881.84 830.59,1883.07"/>
    </edge>
    <edge id=":5081769700_2" function="internal">
        <lane id=":5081769700_2_0" index="0" speed="13.89" length="13.99" width="3.50" shape="826.45,1872.23 826.28,1886.16"/>
        <lane id=":5081769700_2_1" index="1" speed="13.89" length="13.99" width="3.50" shape="822.95,1872.14 822.78,1886.18"/>
    </edge>
    <edge id=":5081770146_0" function="internal">
        <lane id=":5081770146_0_0" index="0" speed="5.03" length="4.74" width="3.50" shape="1268.14,1180.71 1268.10,1181.51 1268.60,1182.29 1269.64,1183.03 1271.23,1183.75"/>
    </edge>
    <edge id=":5081770146_1" function="internal">
        <lane id=":5081770146_1_0" index="0" speed="13.89" length="10.53" width="4.00" shape="1268.14,1180.71 1264.59,1190.62"/>
    </edge>
    <edge id=":5081770146_2" function="internal">
        <lane id=":5081770146_2_0" index="0" speed="13.89" length="8.00" width="3.50" shape="1263.68,1180.96 1271.23,1183.75"/>
        <lane id=":5081770146_2_1" index="1" speed="13.89" length="8.00" width="3.50" shape="1262.48,1184.25 1269.99,1187.02"/>
        <lane id=":5081770146_2_2" index="2" speed="13.89" length="8.00" width="3.50" shape="1261.29,1187.54 1268.75,1190.29"/>
    </edge>
    <edge id=":5081770146_5" function="internal">
        <lane id=":5081770146_5_0" index="0" speed="5.09" length="4.92" width="4.00" shape="1261.29,1187.54 1262.94,1188.25 1264.04,1189.01 1264.59,1189.80 1264.59,1190.62"/>
    </edge>
    <edge id=":5081770148_0" function="internal">
        <lane id=":5081770148_0_0" index="0" speed="5.11" length="5.09" width="4.00" shape="1265.20,1201.22 1263.52,1200.73 1262.21,1200.69 1261.27,1201.08 1260.70,1201.91"/>
    </edge>
    <edge id=":5081770148_1" function="internal">
        <lane id=":5081770148_1_0" index="0" speed="13.89" length="8.00" width="3.50" shape="1265.20,1201.22 1257.72,1198.43"/>
        <lane id=":5081770148_1_1" index="1" speed="13.89" length="8.00" width="3.50" shape="1266.44,1197.95 1258.93,1195.14"/>
    </edge>
    <edge id=":5081770148_3" function="internal">
        <lane id=":5081770148_3_0" index="0" speed="13.89" length="7.99" width="4.00" shape="1263.34,1194.37 1260.70,1201.91"/>
    </edge>
    <edge id=":5081770148_4" function="internal">
        <lane id=":5081770148_4_0" index="0" speed="5.11" length="5.02" width="3.50" shape="1263.34,1194.37 1262.80,1195.22 1261.88,1195.63 1260.59,1195.60 1258.93,1195.14"/>
    </edge>
    <edge id=":5081770150_0" function="internal">
        <lane id=":5081770150_0_0" index="0" speed="4.61" length="4.92" width="3.50" shape="827.54,1019.90 829.15,1020.33 830.31,1020.24 831.01,1019.64 831.27,1018.51"/>
        <lane id=":5081770150_0_1" index="1" speed="5.76" length="8.50" width="3.50" shape="826.30,1023.17 828.42,1023.56 829.95,1022.92 830.90,1021.23 831.27,1018.51"/>
        <lane id=":5081770150_0_2" index="2" speed="6.71" length="12.04" width="3.50" shape="826.30,1023.17 829.94,1024.07 832.56,1023.61 834.17,1021.80 834.77,1018.64"/>
        <lane id=":5081770150_0_3" index="3" speed="7.55" length="15.64" width="3.50" shape="825.06,1026.44 829.21,1027.30 832.21,1026.28 834.06,1023.40 834.77,1018.64"/>
    </edge>
    <edge id=":5171406329_0" function="internal">
        <lane id=":5171406329_0_0" index="0" speed="13.89" length="8.00" width="4.00" shape="403.00,1241.48 402.86,1249.47"/>
    </edge>
    <edge id=":5171406329_1" function="internal">
        <lane id=":5171406329_1_0" index="0" speed="6.31" length="2.74" width="4.00" shape="403.00,1241.48 402.59,1243.22 401.95,1243.91"/>
    </edge>
    <edge id=":5171406329_2" function="internal">
        <lane id=":5171406329_2_0" index="0" speed="4.08" length="1.99" width="4.00" shape="403.00,1241.48 401.97,1242.96 401.80,1243.04"/>
    </edge>
    <edge id=":5171406329_6" function="internal">
        <lane id=":5171406329_6_0" index="0" speed="6.31" length="5.40" width="4.00" shape="401.95,1243.91 401.45,1244.45 399.56,1245.18 396.93,1245.40"/>
    </edge>
    <edge id=":5171406329_7" function="internal">
        <lane id=":5171406329_7_0" index="0" speed="4.08" length="3.85" width="4.00" shape="401.80,1243.04 400.96,1243.44 399.97,1242.92 399.00,1241.40"/>
    </edge>
    <edge id=":5171406329_3" function="internal">
        <lane id=":5171406329_3_0" index="0" speed="5.10" length="4.92" width="4.00" shape="398.86,1249.40 398.77,1247.66 398.42,1246.41 397.80,1245.66 396.93,1245.40"/>
    </edge>
    <edge id=":5171406329_4" function="internal">
        <lane id=":5171406329_4_0" index="0" speed="13.89" length="7.99" width="4.00" shape="398.86,1249.40 399.00,1241.40"/>
    </edge>
    <edge id=":5171406329_5" function="internal">
        <lane id=":5171406329_5_0" index="0" speed="4.08" length="1.99" width="4.00" shape="398.86,1249.40 399.89,1247.92 400.06,1247.84"/>
    </edge>
    <edge id=":5171406329_8" function="internal">
        <lane id=":5171406329_8_0" index="0" speed="4.08" length="3.85" width="4.00" shape="400.06,1247.84 400.90,1247.44 401.89,1247.95 402.86,1249.47"/>
    </edge>
    <edge id=":7402406959_0" function="internal">
        <lane id=":7402406959_0_0" index="0" speed="13.89" length="0.19" width="4.00" shape="408.72,908.61 408.72,908.80"/>
    </edge>
    <edge id=":7402406959_1" function="internal">
        <lane id=":7402406959_1_0" index="0" speed="13.89" length="0.31" width="4.00" shape="404.72,908.73 404.73,908.42"/>
    </edge>
    <edge id=":7402406960_0" function="internal">
        <lane id=":7402406960_0_0" index="0" speed="13.89" length="0.30" width="4.00" shape="407.29,986.93 407.29,987.22"/>
    </edge>
    <edge id=":7402406960_1" function="internal">
        <lane id=":7402406960_1_0" index="0" speed="13.89" length="0.30" width="4.00" shape="403.29,987.16 403.29,986.85"/>
    </edge>
    <edge id=":7402406971_0" function="internal">
        <lane id=":7402406971_0_0" index="0" speed="5.21" length="6.64" width="3.50" shape="830.58,1899.08 828.70,1898.71 827.35,1899.09 826.53,1900.23 826.24,1902.12"/>
        <lane id=":7402406971_0_1" index="1" speed="7.15" length="13.78" width="3.50" shape="831.74,1895.78 827.84,1895.00 825.03,1895.79 823.34,1898.15 822.74,1902.09"/>
    </edge>
    <edge id=":7402406971_2" function="internal">
        <lane id=":7402406971_2_0" index="0" speed="13.89" length="13.99" width="3.50" shape="826.29,1888.11 826.24,1902.12"/>
        <lane id=":7402406971_2_1" index="1" speed="13.89" length="13.99" width="3.50" shape="822.79,1888.12 822.74,1902.09"/>
    </edge>
    <edge id=":7402406972_0" function="internal">
        <lane id=":7402406972_0_0" index="0" speed="13.89" length="0.27" width="3.50" shape="880.90,1916.16 880.68,1916.08"/>
        <lane id=":7402406972_0_1" index="1" speed="13.89" length="0.27" width="3.50" shape="882.07,1912.86 881.77,1912.76"/>
    </edge>
    <edge id=":7402406973_0" function="internal">
        <lane id=":7402406973_0_0" index="0" speed="13.89" length="0.28" width="3.50" shape="853.86,1907.26 853.57,1907.16"/>
        <lane id=":7402406973_0_1" index="1" speed="13.89" length="0.28" width="3.50" shape="854.96,1903.94 854.73,1903.85"/>
    </edge>
    <edge id=":7463666139_0" function="internal">
        <lane id=":7463666139_0_0" index="0" speed="5.13" length="4.87" width="3.50" shape="605.63,933.92 605.62,934.73 606.15,935.52 607.23,936.28 608.86,937.02"/>
    </edge>
    <edge id=":7463666139_1" function="internal">
        <lane id=":7463666139_1_0" index="0" speed="13.89" length="10.53" width="4.00" shape="605.63,933.92 604.60,936.79 603.81,938.86 602.93,940.89 601.64,943.66"/>
    </edge>
    <edge id=":7463666139_2" function="internal">
        <lane id=":7463666139_2_0" index="0" speed="13.89" length="7.99" width="3.50" shape="601.33,934.21 608.86,937.02"/>
        <lane id=":7463666139_2_1" index="1" speed="13.89" length="7.99" width="3.50" shape="600.13,937.50 607.62,940.29"/>
        <lane id=":7463666139_2_2" index="2" speed="13.89" length="7.99" width="3.50" shape="598.93,940.79 606.38,943.56"/>
    </edge>
    <edge id=":7463666139_5" function="internal">
        <lane id=":7463666139_5_0" index="0" speed="4.71" length="4.42" width="4.00" shape="598.93,940.79 600.40,941.44 601.34,942.14 601.75,942.88 601.64,943.66"/>
    </edge>
    <edge id=":7728542888_0" function="internal">
        <lane id=":7728542888_0_0" index="0" speed="4.36" length="3.62" width="4.00" shape="329.97,1762.39 330.30,1761.43 330.85,1760.86 331.62,1760.68 332.62,1760.89"/>
    </edge>
    <edge id=":7728542889_0" function="internal">
        <lane id=":7728542889_0_0" index="0" speed="5.00" length="5.83" width="4.00" shape="433.17,1797.62 434.82,1797.97 436.01,1797.65 436.73,1796.66 436.99,1795.00"/>
    </edge>
    <edge id=":7728542889_1" function="internal">
        <lane id=":7728542889_1_0" index="0" speed="6.74" length="7.02" width="4.00" shape="433.17,1797.62 434.81,1798.47 435.98,1799.65 436.67,1801.16 436.89,1803.00"/>
    </edge>
    <edge id=":7728542895_0" function="internal">
        <lane id=":7728542895_0_0" index="0" speed="13.89" length="7.99" width="4.00" shape="327.50,1880.64 327.18,1878.29 327.02,1876.67 326.95,1875.05 326.94,1872.68"/>
    </edge>
    <edge id=":7728542895_1" function="internal">
        <lane id=":7728542895_1_0" index="0" speed="5.39" length="6.19" width="4.00" shape="327.50,1880.64 327.51,1878.90 328.08,1877.67 329.23,1876.93 330.94,1876.68"/>
    </edge>
    <edge id=":7728542898_0" function="internal">
        <lane id=":7728542898_0_0" index="0" speed="13.89" length="8.00" width="4.00" shape="434.11,1738.64 441.54,1741.60"/>
    </edge>
    <edge id=":7728542898_1" function="internal">
        <lane id=":7728542898_1_0" index="0" speed="4.95" length="1.68" width="4.00" shape="437.76,1744.12 438.02,1742.46"/>
    </edge>
    <edge id=":7728542898_2" function="internal">
        <lane id=":7728542898_2_0" index="0" speed="4.95" length="4.10" width="4.00" shape="438.02,1742.46 438.74,1741.49 439.91,1741.20 441.54,1741.60"/>
    </edge>
    <edge id=":7728542899_0" function="internal">
        <lane id=":7728542899_0_0" index="0" speed="13.89" length="8.00" width="4.00" shape="435.89,1906.83 435.83,1914.83"/>
    </edge>
    <edge id=":7728542899_1" function="internal">
        <lane id=":7728542899_1_0" index="0" speed="6.74" length="1.54" width="4.00" shape="432.09,1909.47 433.46,1910.17"/>
    </edge>
    <edge id=":7728542899_2" function="internal">
        <lane id=":7728542899_2_0" index="0" speed="6.74" length="5.48" width="4.00" shape="433.46,1910.17 433.74,1910.32 434.91,1911.49 435.61,1913.00 435.83,1914.83"/>
    </edge>
    <edge id=":8210174851_0" function="internal">
        <lane id=":8210174851_0_0" index="0" speed="5.45" length="5.42" width="4.00" shape="834.01,1592.27 834.11,1594.13 834.50,1595.49 835.18,1596.37 836.14,1596.76"/>
    </edge>
    <edge id=":8210174851_1" function="internal">
        <lane id=":8210174851_1_0" index="0" speed="13.89" length="8.00" width="3.50" shape="834.01,1592.27 833.85,1600.28"/>
        <lane id=":8210174851_1_1" index="1" speed="13.89" length="8.00" width="3.50" shape="830.51,1592.20 830.35,1600.19"/>
    </edge>
    <edge id=":8210174851_3" function="internal">
        <lane id=":8210174851_3_0" index="0" speed="13.89" length="7.99" width="4.00" shape="828.22,1595.71 836.14,1596.76"/>
    </edge>
    <edge id=":8210174851_4" function="internal">
        <lane id=":8210174851_4_0" index="0" speed="5.50" length="5.43" width="3.50" shape="828.22,1595.71 829.19,1596.10 829.87,1596.97 830.26,1598.34 830.35,1600.19"/>
    </edge>
    <edge id=":8210174852_0" function="internal">
        <lane id=":8210174852_0_0" index="0" speed="13.89" length="0.28" width="4.00" shape="888.58,1608.66 888.85,1608.74"/>
    </edge>
    <edge id=":8210174853_0" function="internal">
        <lane id=":8210174853_0_0" index="0" speed="13.89" length="0.30" width="4.00" shape="859.96,1600.69 860.25,1600.77"/>
    </edge>
    <edge id=":871077613_0" function="internal">
        <lane id=":871077613_0_0" index="0" speed="5.20" length="6.53" width="4.00" shape="414.06,884.13 412.27,883.75 410.95,884.12 410.12,885.25 409.77,887.14"/>
    </edge>
    <edge id=":871077613_1" function="internal">
        <lane id=":871077613_1_0" index="0" speed="13.89" length="14.15" width="3.50" shape="414.06,884.13 410.25,882.42 407.81,880.86 405.37,879.31 401.56,877.60"/>
        <lane id=":871077613_1_1" index="1" speed="13.89" length="14.15" width="3.50" shape="415.29,880.85 411.47,879.14 409.03,877.59 406.59,876.03 402.78,874.32"/>
    </edge>
    <edge id=":871077613_3" function="internal">
        <lane id=":871077613_3_0" index="0" speed="7.31" length="8.73" width="3.50" shape="405.77,886.94 405.50,885.08 404.51,883.45 402.78,882.05 400.33,880.88"/>
    </edge>
    <edge id=":871077613_4" function="internal">
        <lane id=":871077613_4_0" index="0" speed="4.08" length="5.84" width="4.00" shape="405.77,886.94 406.84,885.49 407.87,885.04 408.84,885.59 409.77,887.14"/>
    </edge>
    <edge id=":871077623_0" function="internal">
        <lane id=":871077623_0_0" index="0" speed="13.89" length="7.99" width="3.50" shape="818.67,1598.66 818.82,1590.66"/>
        <lane id=":871077623_0_1" index="1" speed="13.89" length="7.99" width="3.50" shape="822.17,1598.71 822.32,1590.73"/>
    </edge>
    <edge id=":871077623_2" function="internal">
        <lane id=":871077623_2_0" index="0" speed="4.82" length="4.77" width="4.00" shape="822.17,1598.71 822.33,1597.08 822.76,1595.95 823.47,1595.33 824.44,1595.22"/>
    </edge>
    <edge id=":871077658_0" function="internal">
        <lane id=":871077658_0_0" index="0" speed="5.83" length="6.53" width="4.00" shape="586.27,889.49 585.94,891.24 586.23,892.69 587.15,893.86 588.70,894.74"/>
    </edge>
    <edge id=":871077658_1" function="internal">
        <lane id=":871077658_1_0" index="0" speed="13.89" length="8.00" width="4.00" shape="581.23,891.88 588.70,894.74"/>
    </edge>
    <edge id=":871077670_0" function="internal">
        <lane id=":871077670_0_0" index="0" speed="7.87" length="10.09" width="3.50" shape="830.69,1045.67 830.41,1043.02 829.44,1040.84 827.78,1039.13 825.43,1037.89"/>
        <lane id=":871077670_0_1" index="1" speed="9.30" length="14.44" width="3.50" shape="834.19,1045.74 833.79,1041.96 832.40,1038.84 830.02,1036.39 826.66,1034.61"/>
    </edge>
    <edge id=":871077671_0" function="internal">
        <lane id=":871077671_0_0" index="0" speed="13.89" length="7.99" width="4.00" shape="612.03,903.96 619.50,906.79"/>
    </edge>
    <edge id=":871077671_1" function="internal">
        <lane id=":871077671_1_0" index="0" speed="5.80" length="6.52" width="4.00" shape="612.03,903.96 613.57,904.84 614.48,906.01 614.76,907.46 614.40,909.21"/>
    </edge>
    <edge id=":871077684_0" function="internal">
        <lane id=":871077684_0_0" index="0" speed="6.35" length="6.84" width="4.00" shape="624.26,908.51 626.04,908.89 627.63,908.69 629.01,907.90 630.20,906.52"/>
    </edge>
    <edge id=":871077684_1" function="internal">
        <lane id=":871077684_1_0" index="0" speed="13.89" length="8.00" width="4.00" shape="624.26,908.51 631.77,911.27"/>
    </edge>
    <edge id=":871077720_0" function="internal">
        <lane id=":871077720_0_0" index="0" speed="13.89" length="8.00" width="3.50" shape="601.40,953.91 593.91,951.11"/>
        <lane id=":871077720_0_1" index="1" speed="13.89" length="8.00" width="3.50" shape="602.63,950.63 595.13,947.83"/>
    </edge>
    <edge id=":871077720_2" function="internal">
        <lane id=":871077720_2_0" index="0" speed="5.43" length="5.34" width="3.50" shape="599.96,947.24 599.30,948.04 598.28,948.40 596.88,948.33 595.13,947.83"/>
    </edge>
    <edge id=":871077730_0" function="internal">
        <lane id=":871077730_0_0" index="0" speed="9.47" length="11.91" width="4.00" shape="812.17,1898.30 811.78,1894.63 810.87,1891.67 809.46,1889.42 807.55,1887.87"/>
    </edge>
    <edge id=":871077730_1" function="internal">
        <lane id=":871077730_1_0" index="0" speed="13.89" length="13.99" width="3.50" shape="812.17,1898.30 812.10,1884.21"/>
        <lane id=":871077730_1_1" index="1" speed="13.89" length="13.99" width="3.50" shape="815.67,1898.18 815.60,1884.29"/>
    </edge>
    <edge id=":8984639070_0" function="internal">
        <lane id=":8984639070_0_0" index="0" speed="13.89" length="8.00" width="4.00" shape="602.31,1518.04 595.94,1513.20"/>
    </edge>
    <edge id=":8984639070_1" function="internal">
        <lane id=":8984639070_1_0" index="0" speed="4.51" length="0.89" width="4.00" shape="599.18,1511.62 599.06,1512.51"/>
    </edge>
    <edge id=":8984639070_2" function="internal">
        <lane id=":8984639070_2_0" index="0" speed="4.51" length="4.35" width="4.00" shape="599.06,1512.51 598.96,1513.22 598.35,1514.02 597.34,1514.01 595.94,1513.20"/>
    </edge>
    <edge id=":8984639072_0" function="internal">
        <lane id=":8984639072_0_0" index="0" speed="13.89" length="8.00" width="4.00" shape="604.40,1224.61 604.26,1232.60"/>
    </edge>
    <edge id=":8984639072_1" function="internal">
        <lane id=":8984639072_1_0" index="0" speed="5.67" length="1.77" width="4.00" shape="600.36,1228.56 602.11,1228.83"/>
    </edge>
    <edge id=":8984639072_2" function="internal">
        <lane id=":8984639072_2_0" index="0" speed="5.67" length="4.66" width="4.00" shape="602.11,1228.83 603.34,1229.60 604.06,1230.85 604.26,1232.60"/>
    </edge>
    <edge id=":8984639077_0" function="internal">
        <lane id=":8984639077_0_0" index="0" speed="5.76" length="6.48" width="4.00" shape="741.94,1206.67 741.69,1204.91 740.95,1203.65 739.70,1202.87 737.96,1202.58"/>
    </edge>
    <edge id=":8984639077_1" function="internal">
        <lane id=":8984639077_1_0" index="0" speed="13.89" length="8.00" width="4.00" shape="741.94,1206.67 742.07,1198.67"/>
    </edge>
    <edge id=":8984639077_2" function="internal">
        <lane id=":8984639077_2_0" index="0" speed="13.89" length="7.99" width="4.00" shape="745.94,1202.76 737.96,1202.58"/>
    </edge>
    <edge id=":8984639077_3" function="internal">
        <lane id=":8984639077_3_0" index="0" speed="5.69" length="1.76" width="4.00" shape="745.94,1202.76 744.20,1202.47"/>
    </edge>
    <edge id=":8984639077_4" function="internal">
        <lane id=":8984639077_4_0" index="0" speed="5.69" length="4.67" width="4.00" shape="744.20,1202.47 742.98,1201.69 742.27,1200.43 742.07,1198.67"/>
    </edge>
    <edge id=":8984639087_0" function="internal">
        <lane id=":8984639087_0_0" index="0" speed="13.89" length="8.00" width="4.00" shape="582.89,1034.44 590.51,1032.02"/>
    </edge>
    <edge id=":8984639087_1" function="internal">
        <lane id=":8984639087_1_0" index="0" speed="5.06" length="5.88" width="4.00" shape="582.89,1034.44 584.56,1034.18 585.75,1034.57 586.47,1035.59 586.70,1037.26"/>
    </edge>
    <edge id=":8984639093_0" function="internal">
        <lane id=":8984639093_0_0" index="0" speed="13.89" length="8.00" width="4.00" shape="443.29,1224.80 435.29,1224.65"/>
    </edge>
    <edge id=":8984639093_1" function="internal">
        <lane id=":8984639093_1_0" index="0" speed="5.82" length="6.47" width="4.00" shape="443.29,1224.80 441.56,1224.51 440.31,1223.73 439.53,1222.47 439.24,1220.72"/>
    </edge>
    <edge id=":8984639094_0" function="internal">
        <lane id=":8984639094_0_0" index="0" speed="5.65" length="6.40" width="4.00" shape="585.77,1224.53 585.98,1226.27 586.70,1227.52 587.93,1228.26 589.68,1228.51"/>
    </edge>
    <edge id=":8984639094_1" function="internal">
        <lane id=":8984639094_1_0" index="0" speed="5.70" length="2.60" width="4.00" shape="585.77,1224.53 585.48,1226.27 585.04,1226.97"/>
    </edge>
    <edge id=":8984639094_4" function="internal">
        <lane id=":8984639094_4_0" index="0" speed="5.70" length="3.85" width="4.00" shape="585.04,1226.97 584.70,1227.50 583.44,1228.22 581.68,1228.42"/>
    </edge>
    <edge id=":8984639094_2" function="internal">
        <lane id=":8984639094_2_0" index="0" speed="5.73" length="6.46" width="4.00" shape="585.60,1232.52 585.38,1230.77 584.66,1229.50 583.42,1228.71 581.68,1228.42"/>
    </edge>
    <edge id=":8984639094_3" function="internal">
        <lane id=":8984639094_3_0" index="0" speed="5.76" length="2.65" width="4.00" shape="585.60,1232.52 585.88,1230.77 586.34,1230.03"/>
    </edge>
    <edge id=":8984639094_5" function="internal">
        <lane id=":8984639094_5_0" index="0" speed="5.76" length="3.84" width="4.00" shape="586.34,1230.03 586.66,1229.52 587.92,1228.76 589.68,1228.51"/>
    </edge>
    <edge id=":8984639096_0" function="internal">
        <lane id=":8984639096_0_0" index="0" speed="5.60" length="6.24" width="4.00" shape="590.27,1198.81 588.52,1198.98 587.26,1199.64 586.49,1200.80 586.21,1202.44"/>
    </edge>
    <edge id=":8984639096_1" function="internal">
        <lane id=":8984639096_1_0" index="0" speed="13.89" length="8.00" width="4.00" shape="586.30,1194.44 586.21,1202.44"/>
    </edge>
    <edge id=":8984639102_0" function="internal">
        <lane id=":8984639102_0_0" index="0" speed="6.22" length="6.77" width="4.00" shape="801.27,1219.87 799.47,1220.09 798.07,1220.81 797.08,1222.03 796.48,1223.74"/>
    </edge>
    <edge id=":8984639102_1" function="internal">
        <lane id=":8984639102_1_0" index="0" speed="6.53" length="6.93" width="4.00" shape="801.27,1219.87 799.45,1219.61 798.00,1218.87 796.91,1217.66 796.19,1215.97"/>
    </edge>
    <edge id=":8984639103_0" function="internal">
        <lane id=":8984639103_0_0" index="0" speed="5.10" length="5.09" width="4.00" shape="826.81,1224.16 826.71,1222.42 826.31,1221.17 825.63,1220.41 824.65,1220.15"/>
    </edge>
    <edge id=":8984639103_1" function="internal">
        <lane id=":8984639103_1_0" index="0" speed="13.89" length="8.00" width="3.50" shape="826.81,1224.16 826.98,1216.17"/>
        <lane id=":8984639103_1_1" index="1" speed="13.89" length="8.00" width="3.50" shape="830.31,1224.24 830.48,1216.24"/>
    </edge>
    <edge id=":9040295924_0" function="internal">
        <lane id=":9040295924_0_0" index="0" speed="13.89" length="8.00" width="4.00" shape="1151.62,853.54 1154.36,846.02"/>
    </edge>
    <edge id=":9040295924_1" function="internal">