<?xml version='1.0' encoding='UTF-8'?>
<edges>
  <edge id="Songtao_1" from="Custom0" to="Custom1" numLanes="1" width="3.5" shape="-1185.816838,-113.622243 -1167.076371,-113.934581 -1148.393100,-114.245950 -1129.824220,-114.555381 -1111.426926,-114.861903 -1093.258411,-115.164547 -1075.375871,-115.462344 -1057.836501,-115.754325 -1040.697495,-116.039520 -1024.016049,-116.316960 -1007.849357,-116.585675 -992.254614,-116.844697 -977.289016,-117.093054 -963.009759,-117.329779 -949.474037,-117.553902 -936.739048,-117.764453 -924.861992,-117.960463 -913.867312,-118.141464 -903.648372,-118.308997 -894.065751,-118.465106 -884.980023,-118.611835 -876.251756,-118.751227 -867.741510,-118.885326 -859.309841,-119.016176 -850.817297,-119.145821 -842.124430,-119.276305 -833.091792,-119.409672 -823.579939,-119.547965 -813.449434,-119.693228 -802.560845,-119.847506 -790.774745,-120.012841 -777.951709,-120.191277 -763.952315,-120.384857 -748.688705,-120.594901 -732.279273,-120.819829 -714.893969,-121.057335 -696.702738,-121.305116 -677.875528,-121.560867 -658.582282,-121.822282 -638.992947,-122.087059 -619.277465,-122.352892 -599.605783,-122.617476 -580.147845,-122.878508 -561.073596,-123.133683 -542.552981,-123.380695 -524.755946,-123.617242 -507.852439,-123.841017 -492.012409,-124.049717 -477.405805,-124.241037 -464.160220,-124.413290 -452.233878,-124.567252 -441.542675,-124.704318 -432.002508,-124.825882 -423.529268,-124.933339 -416.038847,-125.028083 -409.447163,-125.111507 -403.670059,-125.185006 -398.623398,-125.249975 -394.223026,-125.307809 -390.384777,-125.359903 -387.024472,-125.407652 -384.057937,-125.452453 -384.055880,-125.452485 -381.401025,-125.495701 -381.398497,-125.495744 -378.969669,-125.538792 -378.966807,-125.538845 -376.679912,-125.583119 -376.676820,-125.583181 -374.459818,-125.630022 -374.456056,-125.630106 -372.285124,-125.680643 -372.280565,-125.680755 -370.143933,-125.736066 -370.138615,-125.736211 -368.024513,-125.797370 -368.018501,-125.797554 -365.915162,-125.865638 -365.908547,-125.865865 -363.804200,-125.941950 -363.797094,-125.942221 -361.679971,-126.027384 -361.672501,-126.027701 -359.530832,-126.123017 -359.523133,-126.123377 -357.345149,-126.229923 -357.337354,-126.230322 -355.111286,-126.349174 -355.103523,-126.349606 -352.817602,-126.481841 -352.809986,-126.482298 -350.452441,-126.628992 -350.445070,-126.629466 -348.004134,-126.791695 -347.997085,-126.792177 -345.460988,-126.971017 -345.454322,-126.971500 -342.811294,-127.168027 -342.805052,-127.168503 -340.043325,-127.383793 -340.037421,-127.384264 -337.149482,-127.619228 -337.143472,-127.619728 -334.138833,-127.874613 -334.132557,-127.875157 -331.024989,-128.150043 -331.018394,-128.150639 -327.821665,-128.445608 -327.814695,-128.446266 -324.542576,-128.761398 -324.535172,-128.762127 -321.201432,-129.097503 -321.193531,-129.098316 -317.811939,-129.454016 -317.803469,-129.454928 -314.387795,-129.831034 -314.378675,-129.832063 -310.942689,-130.228655 -310.932825,-130.229822 -307.490296,-130.646982 -307.479581,-130.648314 -304.044278,-131.086122 -304.032584,-131.087652 -300.618277,-131.546188 -300.605452,-131.547959 -297.225911,-132.027305 -297.211774,-132.029369 -293.880768,-132.529606 -293.865098,-132.532031 -290.596397,-133.053239 -290.578924,-133.056116 -287.386297,-133.598375 -287.366141,-133.601920 -284.250601,-134.168650 -284.225793,-134.173348 -281.137328,-134.781312 -281.108737,-134.787189 -277.984579,-135.456491 -277.954123,-135.463301 -274.731503,-136.214044 -274.701131,-136.221406 -271.317281,-137.073692 -271.288619,-137.081169 -267.680770,-138.055101 -267.654920,-138.062292 -263.760303,-139.177971 -263.737826,-139.184574 -259.493673,-140.462104 -259.474684,-140.467937 -254.818227,-141.927420 -254.802547,-141.932416 -249.671017,-143.593955 -249.658303,-143.598125 -243.988931,-145.481822 -243.978776,-145.485231 -237.708793,-147.611189 -237.700788,-147.613924 -230.767426,-150.002246 -230.761195,-150.004405 -223.101685,-152.675192 -223.096900,-152.676868 -214.648475,-155.650224 -214.644858,-155.651501 -205.344748,-158.947527 -205.342044,-158.948488 -195.151049,-162.579073 -195.148951,-162.579822 -184.122140,-166.523993 -184.120460,-166.524595 -172.336471,-170.753166 -159.872570,-175.237442 -146.809002,-179.947659 -133.224354,-184.854650 -119.197225,-189.929240 -104.806228,-195.142250 -90.129979,-200.464503 -75.247101,-205.866814 -60.236220,-211.320003 -45.175966,-216.794884 -30.144970,-222.262274 -15.221864,-227.692986 -0.485285,-233.057835 13.986133,-238.327634 28.131920,-243.479954 41.964277,-248.519391 55.513516,-253.457279 68.809937,-258.304946 81.883838,-263.073721 94.765518,-267.774933 107.485274,-272.419909 120.073402,-277.019977 132.560200,-281.586464 144.975963,-286.130699 157.350986,-290.664008 169.715564,-295.197718 182.099991,-299.743156 194.534562,-304.311649 207.049569,-308.914524 219.675307,-313.563106 232.435541,-318.266238 245.327938,-323.022822 258.343679,-327.829292 271.473952,-332.682084 284.709946,-337.577635 298.042848,-342.512380 311.463848,-347.482756 324.964133,-352.485199 338.534891,-357.516144 352.167309,-362.572028 365.852575,-367.649287 379.581876,-372.744356 393.346400,-377.853670 407.137332,-382.973667 420.945861,-388.100781 434.763172,-393.231449 "/>
  <edge id="Songtao_counter" from="Custom2" to="Custom3" numLanes="3" width="3.5" shape="513.532257,-411.995822 208.595700,-303.747515 208.547907,-303.730289 -251.247371,-135.481799 -326.363408,-121.230023 -359.832536,-119.024383 -596.738158,-117.250707 -596.837187,-117.249031 -876.210050,-109.885184 -1180.288948,-106.343244 "/>
</edges>
