<?xml version="1.0" encoding="UTF-8"?>

<!-- generated on 2024-06-28 23:40:39 by Eclipse SUMO netconvert Version 1.10.0
<configuration xmlns:xsi="http://www.w3.org/2001/XMLSchema-instance" xsi:noNamespaceSchemaLocation="http://sumo.dlr.de/xsd/netconvertConfiguration.xsd">

    <input>
        <node-files value="school_net/sumo.nod.xml"/>
        <edge-files value="school_net/sumo.edg.xml"/>
    </input>

    <output>
        <output-file value="school_net/sumo.net.xml"/>
    </output>

    <report>
        <aggregate-warnings value="5"/>
    </report>

</configuration>
-->

<net version="1.9" junctionCornerDetail="5" limitTurnSpeed="5.50" xmlns:xsi="http://www.w3.org/2001/XMLSchema-instance" xsi:noNamespaceSchemaLocation="http://sumo.dlr.de/xsd/net_file.xsd">

    <location netOffset="1185.85,412.00" convBoundary="0.00,0.00,1701.13,310.90" origBoundary="-1185.85,-412.00,515.29,-101.09" projParameter="!"/>

    <edge id="Songtao_1" from="Custom0" to="Custom1" priority="-1" shape="0.03,298.37 18.77,298.06 37.45,297.75 56.02,297.44 74.42,297.13 92.59,296.83 110.47,296.53 128.01,296.24 145.15,295.96 161.83,295.68 178.00,295.41 193.59,295.15 208.56,294.90 222.84,294.67 236.37,294.44 249.11,294.23 260.98,294.04 271.98,293.85 282.20,293.69 291.78,293.53 300.87,293.38 309.59,293.24 318.10,293.11 326.54,292.98 335.03,292.85 343.72,292.72 352.75,292.59 362.27,292.45 372.40,292.30 383.29,292.15 395.07,291.98 407.89,291.80 421.89,291.61 437.16,291.40 453.57,291.18 470.95,290.94 489.14,290.69 507.97,290.43 527.26,290.17 546.85,289.91 566.57,289.64 586.24,289.38 605.70,289.12 624.77,288.86 643.29,288.62 661.09,288.38 677.99,288.15 693.83,287.95 708.44,287.75 721.69,287.58 733.61,287.43 744.30,287.29 753.84,287.17 762.32,287.06 769.81,286.97 776.40,286.88 782.18,286.81 787.22,286.75 791.62,286.69 795.46,286.64 798.82,286.59 801.79,286.54 804.44,286.50 806.88,286.46 809.17,286.41 811.39,286.37 813.56,286.32 815.70,286.26 817.82,286.20 819.93,286.13 822.04,286.05 824.17,285.97 826.32,285.87 828.50,285.77 830.73,285.65 833.03,285.51 835.39,285.37 837.84,285.20 840.39,285.02 843.03,284.83 845.80,284.61 848.70,284.38 851.71,284.12 854.82,283.85 858.02,283.55 861.30,283.23 864.64,282.90 868.03,282.54 871.46,282.16 874.90,281.77 878.36,281.35 881.80,280.91 885.23,280.45 888.62,279.97 891.97,279.47 895.25,278.94 898.46,278.40 901.60,277.83 904.71,277.21 907.86,276.54 911.11,275.78 914.53,274.92 918.17,273.94 922.09,272.82 926.35,271.53 931.03,270.07 936.17,268.40 941.86,266.51 948.14,264.38 955.08,261.99 962.74,259.32 971.20,256.35 980.50,253.05 990.69,249.42 1001.72,245.47 1013.51,241.24 1025.97,236.76 1039.04,232.05 1052.62,227.14 1066.65,222.07 1081.04,216.85 1095.72,211.53 1110.60,206.13 1125.61,200.68 1140.67,195.20 1155.70,189.73 1170.62,184.30 1185.36,178.94 1199.83,173.67 1213.98,168.52 1227.81,163.48 1241.36,158.54 1254.66,153.69 1267.73,148.92 1280.61,144.22 1293.33,139.58 1305.92,134.98 1318.41,130.41 1330.82,125.87 1343.20,121.33 1355.56,116.80 1367.95,112.25 1380.38,107.68 1392.90,103.08 1405.52,98.43 1418.28,93.73 1431.17,88.97 1444.19,84.17 1457.32,79.31 1470.56,74.42 1483.89,69.48 1497.31,64.51 1510.81,59.51 1524.38,54.48 1538.01,49.42 1551.70,44.35 1565.43,39.25 1579.19,34.14 1592.98,29.02 1606.79,23.90 1620.61,18.76">
        <lane id="Songtao_1_0" index="0" speed="13.89" length="1665.97" width="3.50" shape="-0.00,296.62 18.74,296.31 37.42,296.00 55.99,295.69 74.39,295.38 92.56,295.08 110.44,294.78 127.98,294.49 145.12,294.21 161.80,293.93 177.97,293.66 193.56,293.40 208.53,293.15 222.81,292.92 236.34,292.69 249.08,292.48 260.96,292.29 271.95,292.10 282.17,291.94 291.75,291.78 300.84,291.63 309.57,291.49 318.08,291.36 326.51,291.23 335.00,291.10 343.70,290.97 352.73,290.84 362.24,290.70 372.37,290.55 383.26,290.40 395.05,290.23 407.87,290.05 421.87,289.86 437.13,289.65 453.54,289.43 470.93,289.19 489.12,288.94 507.95,288.69 527.24,288.42 546.83,288.16 566.54,287.89 586.22,287.63 605.67,287.37 624.75,287.11 643.27,286.87 661.07,286.63 677.97,286.40 693.81,286.20 708.42,286.00 721.66,285.83 733.59,285.68 744.28,285.54 753.82,285.42 762.29,285.31 769.79,285.22 776.38,285.13 782.15,285.06 787.20,285.00 791.60,284.94 795.44,284.89 798.80,284.84 801.76,284.79 804.42,284.75 806.84,284.71 809.13,284.66 811.35,284.62 813.52,284.57 815.65,284.51 817.77,284.45 819.87,284.38 821.98,284.31 824.09,284.22 826.23,284.12 828.41,284.02 830.64,283.90 832.92,283.77 835.28,283.62 837.72,283.46 840.26,283.28 842.90,283.08 845.66,282.87 848.55,282.63 851.56,282.38 854.66,282.10 857.86,281.81 861.13,281.49 864.47,281.16 867.85,280.80 871.26,280.43 874.70,280.03 878.14,279.61 881.57,279.17 884.99,278.72 888.37,278.24 891.70,277.74 894.97,277.22 898.16,276.67 901.27,276.11 904.36,275.50 907.48,274.83 910.70,274.08 914.09,273.23 917.70,272.25 921.59,271.14 925.84,269.86 930.50,268.40 935.63,266.74 941.30,264.86 947.57,262.73 954.51,260.34 962.17,257.67 970.61,254.70 979.92,251.40 990.11,247.77 1001.13,243.82 1012.92,239.60 1025.38,235.11 1038.44,230.40 1052.03,225.50 1066.05,220.42 1080.44,215.21 1095.12,209.89 1110.00,204.48 1125.01,199.03 1140.07,193.56 1155.10,188.09 1170.03,182.66 1184.76,177.29 1199.23,172.02 1213.38,166.87 1227.21,161.83 1240.76,156.89 1254.06,152.05 1267.13,147.28 1280.01,142.58 1292.73,137.93 1305.32,133.33 1317.80,128.77 1330.22,124.22 1342.59,119.69 1354.96,115.16 1367.34,110.61 1379.78,106.04 1392.29,101.44 1404.92,96.79 1417.68,92.09 1430.57,87.33 1443.58,82.52 1456.71,77.67 1469.95,72.78 1483.28,67.84 1496.70,62.87 1510.20,57.87 1523.77,52.84 1537.40,47.78 1551.09,42.71 1564.82,37.61 1578.58,32.50 1592.37,27.38 1606.18,22.25 1620.00,17.12"/>
    </edge>
    <edge id="Songtao_counter" from="Custom2" to="Custom3" priority="-1" shape="1699.38,0.00 1394.44,108.25 934.60,276.51 859.48,290.77 826.01,292.97 589.11,294.75 309.64,302.11 5.56,305.65">
        <lane id="Songtao_counter_0" index="0" speed="13.89" length="1745.55" width="3.50" shape="1702.31,8.25 1397.41,116.48 936.93,284.98 860.59,299.46 826.33,301.72 589.26,303.49 309.80,310.86 5.66,314.40"/>
        <lane id="Songtao_counter_1" index="1" speed="13.89" length="1745.55" width="3.50" shape="1701.13,4.95 1396.22,113.19 936.00,281.59 860.15,295.98 826.21,298.22 589.20,299.99 309.74,307.36 5.62,310.90"/>
        <lane id="Songtao_counter_2" index="2" speed="13.89" length="1745.55" width="3.50" shape="1699.96,1.65 1395.04,109.89 935.07,278.21 859.70,292.51 826.08,294.72 589.14,296.49 309.67,303.86 5.58,307.40"/>
    </edge>

    <junction id="Custom0" type="dead_end" x="0.00" y="296.62" incLanes="" intLanes="" shape="0.03,298.37 -0.03,294.87"/>
    <junction id="Custom1" type="dead_end" x="1620.00" y="17.12" incLanes="Songtao_1_0" intLanes="" shape="1619.39,15.48 1620.61,18.76"/>
    <junction id="Custom2" type="dead_end" x="1701.13" y="4.95" incLanes="" intLanes="" shape="1699.38,-0.00 1702.89,9.90"/>
    <junction id="Custom3" type="dead_end" x="5.62" y="310.90" incLanes="Songtao_counter_0 Songtao_counter_1 Songtao_counter_2" intLanes="" shape="5.68,316.15 5.56,305.65"/>

</net>
