<?xml version="1.0" encoding="UTF-8"?>

<!-- generated on 2024-06-28 23:40:50.480442 by randomTrips.py v1_17_0+0000-737931d58da
<configuration>
    <net-file value="sumo.net.xml"/>
    <route-file value="sumo.rou.xml"/>
    <length value="True"/>
    <allow-fringe value="True"/>
    <period value="5.0"/>
</configuration>
-->

<!-- generated on 2024-06-28 23:40:50 by Eclipse SUMO duarouter Version 1.17.0
<configuration xmlns:xsi="http://www.w3.org/2001/XMLSchema-instance" xsi:noNamespaceSchemaLocation="http://sumo.dlr.de/xsd/duarouterConfiguration.xsd">

    <input>
        <net-file value="sumo.net.xml"/>
        <route-files value="trips.trips.xml"/>
    </input>

    <output>
        <output-file value="sumo.rou.xml"/>
        <alternatives-output value="NUL"/>
    </output>

    <time>
        <begin value="0"/>
        <end value="3600.0"/>
    </time>

    <report>
        <no-warnings value="true"/>
        <ignore-errors value="true"/>
        <no-step-log value="true"/>
    </report>

</configuration>
-->

<routes xmlns:xsi="http://www.w3.org/2001/XMLSchema-instance" xsi:noNamespaceSchemaLocation="http://sumo.dlr.de/xsd/routes_file.xsd">
    <vehicle id="1" depart="0.00">
        <route edges="Songtao_1"/>
    </vehicle>

</routes>
