<?xml version='1.0' encoding='UTF-8'?>
<nodes>
  <node id="Custom0" x="-1185.846" y="-115.37199999999999"/>
  <node id="Custom1" x="434.154" y="-394.87200000000007"/>
  <node id="Custom2" x="515.2885573874544" y="-407.0483070014848"/>
  <node id="Custom3" x="-1180.2277996875162" y="-101.09359974692961"/>
</nodes>
